tests/fuzzer/corpus_json/21_random_035.json
{
  "version": "1.0",
  "type": "input",
  "is_batch": false,
  "attributes": {},
  "data": {
    "node": [
      {
        "id": 0,
        "u_rated": 10000.0
      },
      {
        "id": 1,
        "u_rated": 10000.0
      },
      {
        "id": 2,
        "u_rated": 10000.0
      },
      {
        "id": 3,
        "u_rated": 10000.0
      },
      {
        "id": 4,
        "u_rated": 10000.0
      },
      {
        "id": 5,
        "u_rated": 10000.0
      },
      {
        "id": 6,
        "u_rated": 10000.0
      },
      {
        "id": 7,
        "u_rated": 10000.0
      },
      {
        "id": 8,
        "u_rated": 10000.0
      },
      {
        "id": 9,
        "u_rated": 10000.0
      }
    ],
    "source": [
      {
        "id": 10,
        "node": 0,
        "status": 1,
        "u_ref": 1.0494613458819209,
        "u_ref_angle": 0.0,
        "sk": 750565896.2906321,
        "rx_ratio": 0.43252256197500494,
        "z01_ratio": 1.0
      },
      {
        "id": 11,
        "node": 9,
        "status": 1,
        "u_ref": 1.0,
        "u_ref_angle": 0.0,
        "sk": 965575906.1181794,
        "rx_ratio": 0.1,
        "z01_ratio": 1.0
      }
    ],
    "line": [
      {
        "id": 12,
        "from_node": 0,
        "to_node": 1,
        "from_status": 1,
        "to_status": 1,
        "r1": 2.8337001451034567,
        "x1": 3.736945484792949,
        "c1": 7.548983161359918e-07,
        "tan1": 0.0,
        "r0": 0.3,
        "x0": 0.3,
        "c0": 1e-09,
        "tan0": 0.0,
        "i_n": 929.9074611214331
      },
      {
        "id": 13,
        "from_node": 1,
        "to_node": 2,
        "from_status": 1,
        "to_status": 1,
        "r1": 1.370561109963719,
        "x1": 1.8331090660919331,
        "c1": 7.173445069748814e-07,
        "tan1": 0.0,
        "r0": 0.3,
        "x0": 0.3,
        "c0": 1e-09,
        "tan0": 0.0,
        "i_n": 589.4436935443799
      },
      {
        "id": 14,
        "from_node": 2,
        "to_node": 3,
        "from_status": 1,
        "to_status": 1,
        "r1": 3.751839365687701,
        "x1": 1.821453236364604,
        "c1": 9.552362077987965e-07,
        "tan1": 0.0,
        "r0": 0.3,
        "x0": 0.3,
        "c0": 1e-09,
        "tan0": 0.0,
        "i_n": 21.163203088189057
      },
      {
        "id": 15,
        "from_node": 3,
        "to_node": 4,
        "from_status": 1,
        "to_status": 1,
        "r1": 3.608409520062703,
        "x1": 1.872736280077535,
        "c1": 2.521939084626412e-08,
        "tan1": 0.0,
        "r0": 0.3,
        "x0": 0.3,
        "c0": 1e-09,
        "tan0": 0.0,
        "i_n": 678.3330700636755
      },
      {
        "id": 16,
        "from_node": 4,
        "to_node": 5,
        "from_status": 1,
        "to_status": 1,
        "r1": 0.2578882509235392,
        "x1": 1.1732579387643867,
        "c1": 3.2498596667246203e-07,
        "tan1": 0.0,
        "r0": 0.3,
        "x0": 0.3,
        "c0": 1e-09,
        "tan0": 0.0,
        "i_n": 165.47345278687231
      },
      {
        "id": 17,
        "from_node": 5,
        "to_node": 6,
        "from_status": 1,
        "to_status": 1,
        "r1": 0.82071310151965,
        "x1": 0.3680744945432607,
        "c1": 8.460857895108203e-07,
        "tan1": 0.0,
        "r0": 0.3,
        "x0": 0.3,
        "c0": 1e-09,
        "tan0": 0.0,
        "i_n": 92.22860195503182
      },
      {
        "id": 18,
        "from_node": 6,
        "to_node": 7,
        "from_status": 1,
        "to_status": 1,
        "r1": 0.8040490961278601,
        "x1": 0.3849908215627018,
        "c1": 9.094209755212598e-07,
        "tan1": 0.0,
        "r0": 0.3,
        "x0": 0.3,
        "c0": 1e-09,
        "tan0": 0.0,
        "i_n": 550.4025117593603
      },
      {
        "id": 19,
        "from_node": 7,
        "to_node": 8,
        "from_status": 1,
        "to_status": 1,
        "r1": 4.112415479141898,
        "x1": 4.862312965661414,
        "c1": 4.952532747608908e-07,
        "tan1": 0.0,
        "r0": 0.3,
        "x0": 0.3,
        "c0": 1e-09,
        "tan0": 0.0,
        "i_n": 400.98140293856596
      },
      {
        "id": 20,
        "from_node": 8,
        "to_node": 9,
        "from_status": 1,
        "to_status": 1,
        "r1": 1.9446036605402195,
        "x1": 1.3232239997427104,
        "c1": 5.947565493705971e-07,
        "tan1": 0.0,
        "r0": 0.3,
        "x0": 0.3,
        "c0": 1e-09,
        "tan0": 0.0,
        "i_n": 966.6268792125207
      }
    ],
    "sym_load": [
      {
        "id": 21,
        "node": 1,
        "status": 1,
        "type": 0,
        "p_specified": 77793.86017649391,
        "q_specified": 6601.7534009455885
      },
      {
        "id": 22,
        "node": 3,
        "status": 1,
        "type": 0,
        "p_specified": -85317.96875988258,
        "q_specified": -1876.538417762621
      },
      {
        "id": 23,
        "node": 4,
        "status": 1,
        "type": 1,
        "p_specified": 36157.02093777046,
        "q_specified": -4805.240495477155
      },
      {
        "id": 24,
        "node": 5,
        "status": 1,
        "type": 0,
        "p_specified": -50687.9839511444,
        "q_specified": 1590.1955684172026
      },
      {
        "id": 25,
        "node": 6,
        "status": 1,
        "type": 2,
        "p_specified": -84115.04463173119,
        "q_specified": -7674.442984293583
      },
      {
        "id": 26,
        "node": 8,
        "status": 1,
        "type": 2,
        "p_specified": 78517.52860162503,
        "q_specified": 2293.5601497944463
      },
      {
        "id": 27,
        "node": 9,
        "status": 1,
        "type": 1,
        "p_specified": 735.17237446949,
        "q_specified": 5002.8562792046505
      }
    ]
  }
}